*HEADING
cubit(uralNetworks/SynthData/Mesher_SynthData_Gent/TestMesh.inp): 07/11/2022: 10
version: 2020.2
**
********************************** P A R T S **********************************
*PART, NAME=Part-Default
**
********************************** N O D E S **********************************
*NODE, NSET=ALLNODES
       1,    0.000000e+00,   -1.000000e+00,    0.000000e+00
       2,    0.000000e+00,   -1.888889e+00,    0.000000e+00
       3,    0.000000e+00,   -1.777778e+00,    0.000000e+00
       4,    0.000000e+00,   -1.666667e+00,    0.000000e+00
       5,    0.000000e+00,   -1.555556e+00,    0.000000e+00
       6,    0.000000e+00,   -1.444444e+00,    0.000000e+00
       7,    0.000000e+00,   -1.333333e+00,    0.000000e+00
       8,    0.000000e+00,   -1.222222e+00,    0.000000e+00
       9,    0.000000e+00,   -1.111111e+00,    0.000000e+00
      10,    1.111111e-01,   -1.000000e+00,    0.000000e+00
      11,    2.222222e-01,   -1.000000e+00,    0.000000e+00
      12,    3.333333e-01,   -1.000000e+00,    0.000000e+00
      13,    4.444444e-01,   -1.000000e+00,    0.000000e+00
      14,    5.555556e-01,   -1.000000e+00,    0.000000e+00
      15,    6.666667e-01,   -1.000000e+00,    0.000000e+00
      16,    7.777778e-01,   -1.000000e+00,    0.000000e+00
      17,    8.888889e-01,   -1.000000e+00,    0.000000e+00
      18,    8.888889e-01,   -1.111111e+00,    0.000000e+00
      19,    8.888889e-01,   -1.222222e+00,    0.000000e+00
      20,    8.888889e-01,   -1.333333e+00,    0.000000e+00
** ... 10937 like lines cut
**
********************************** E L E M E N T S ****************************
*ELEMENT, TYPE=C3D8R, ELSET=EB1
       1,     776,    1213,    1593,     777,     796,    2446,    3492,     831
       2,    1213,    1212,    1574,    1593,    2446,    2464,    3493,    3492
       3,    1212,    1211,    1555,    1574,    2464,    2482,    3494,    3493
       4,    1211,    1210,    1536,    1555,    2482,    2500,    3495,    3494
       5,    1210,    1209,    1517,    1536,    2500,    2518,    3496,    3495
       6,    1209,    1208,    1498,    1517,    2518,    2536,    3497,    3496
       7,    1208,    1207,    1479,    1498,    2536,    2554,    3498,    3497
       8,    1207,    1206,    1460,    1479,    2554,    2572,    3499,    3498
       9,    1206,    1205,    1441,    1460,    2572,    2590,    3500,    3499
      10,    1205,    1204,    1422,    1441,    2590,    2608,    3501,    3500
      11,    1204,    1203,    1403,    1422,    2608,    2626,    3502,    3501
      12,    1203,    1202,    1384,    1403,    2626,    2644,    3503,    3502
      13,    1202,    1201,    1365,    1384,    2644,    2662,    3504,    3503
      14,    1201,    1200,    1346,    1365,    2662,    2680,    3505,    3504
      15,    1200,    1199,    1327,    1346,    2680,    2698,    3506,    3505
      16,    1199,    1198,    1308,    1327,    2698,    2716,    3507,    3506
      17,    1198,    1197,    1289,    1308,    2716,    2734,    3508,    3507
      18,    1197,    1196,    1270,    1289,    2734,    2752,    3509,    3508
      19,    1196,    1195,    1251,    1270,    2752,    2770,    3510,    3509
      20,    1195,    1175,    1194,    1251,    2770,    2392,    3113,    3510
** ... 9464 like lines cut
**
********************************** S I D E S E T S **********************************
*ELSET, ELSET=SS1_S1
    8072,    8217,    8219,    8223,    8230,    8295,    8439,    8440,    8441,    8442,
    8460,    8461,    8462,    8463,    8756,    8757,    8758,    8759,    8760,    8761,
    8762,    8763,    8764,    8765,    8766,    8767,    8768,    8769,    8770,    8771,
    8772,    8773,    8774,    8775,    8776,    8777,    8778,    8779,    8780,    8781,
    8782,    8783,    8784,    8785,    8786,    8787,    8788,    8789,    8790,    8791,
    8792,    8793,    8794,    8795,    8796,    8797,    8798,    8799,    8800,    8801,
    8802,    8803,    8804,    8805,    8806,    8807,    8808,    8809,    8810,    8811,
    8812,    8813,    8814,    8815,    8816,    8817,    8818,    8819,    8820,    8821,
    8822,    8823,    8824,    8825,    8826,    8827,    8828,    8829,    8830,    8831,
    8832,    8833,    8834,    8835,    8836
*ELSET, ELSET=SS1_S2
    8159,    8162,    8189,    8192,    8195,    8198,    8201,    8204,    8207,    8210
*ELSET, ELSET=SS1_S3
    8117,    8133,    8235,    8239,    8243,    8245,    8287,    8291,    8578,    8579,
    8580,    8581
*ELSET, ELSET=SS1_S5
    8338,    8339,    8340,    8353,    8354,    8355,    8523,    8524,    8525
*ELSET, ELSET=SS1_S6
       1,      21,      41,      61,      81,     101,     121,     141,     161,     181,
     201,     221,     241,     261,     281,     301,     321,     341,     361,     381,
     401,     421,     441,     461,     481,     501,     521,     541,     561,     581,
     601,     621,     641,     661,     681,     701,     721,     741,     761,     781,
     801,     821,     841,     861,     881,     901,     921,     941,     961,     981,
    1001,    1021,    1041,    1061,    1081,    1101,    1121,    1141,    1161,    1181,
    1201,    1221,    1241,    1261,    1281,    1301,    1321,    1341,    1361,    1381,
    1401,    1421,    1441,    1461,    1481,    1501,    1521,    1541,    1561,    1581,
    1601,    1621,    1641,    1661,    1681,    1701,    1721,    1741,    1761,    1781,
    1801,    1821,    1841,    1861,    1881,    1901,    1921,    1941,    1961,    1981,
    2001,    2021,    2041,    2061,    2081,    2101,    2121,    2141,    2161,    2181,
    2201,    2221,    2241,    2261,    2281,    2301,    2321,    2341,    2361,    2381,
    2401,    2421,    2441,    2461,    2481,    2501,    2521,    2541,    2561,    2581,
    2601,    2621,    2641,    2661,    2681,    2701,    2721,    2741,    2761,    2781,
    2801,    2821,    2841,    2861,    2881,    2901,    2921,    2941,    2961,    2981,
    3001,    3021,    3041,    3061,    3081,    3101,    3121,    3141,    3161,    3181,
    3201,    3221,    3241,    3261,    3281,    3301,    3321,    3341,    3361,    3381,
    3401,    3421,    3441,    3461,    3481,    3501,    3521,    3541,    3561,    3581,
    3601,    3621,    3641,    3661,    3681,    3701,    3721,    3741,    3761,    3781,
    3801,    3821,    3841,    3861,    3881,    3901,    3921,    3941,    3961,    3981,
** ... 21 like lines cut
*SURFACE, NAME=SS1
SS1_S1, S1
SS1_S2, S2
SS1_S3, S3
SS1_S5, S5
SS1_S6, S6
*ELSET, ELSET=SS2_S2
    7597,    7598,    7599,    7600,    7601,    7602,    7603,    7604,    7605,    7606,
    7607,    7608,    7609,    7610,    7611,    7612,    7613,    7614,    7615,    7616,
    7617,    7618,    7619,    7620,    7621,    7622,    7623,    7624,    7625,    7626,
    7627,    7628,    7629,    7630,    7631,    7632,    7633,    7634,    7635,    7636,
    7637,    7638,    7639,    7640,    7641,    7642,    7643,    7644,    7645,    7646,
    7647,    7648,    7649,    7650,    7651,    7652,    7653,    7654,    7655,    7656,
    7657,    7658,    7659,    7660,    7661,    7662,    7663,    7664,    7665,    7666,
    7667,    7668,    7669,    7670,    7671,    7672,    7673,    7674,    7675,    7676,
    7677,    7678,    7679,    7680,    7681,    7682,    7683,    7684,    7685,    7686,
    7687,    7688,    7689,    7690,    7691,    7692,    7693,    7694,    7695,    7696,
    7697,    7698,    7699,    7700,    7701,    7702,    7703,    7704,    7705,    7706,
    7707,    7708,    7709,    7710,    7711,    7712,    7713,    7714,    7715,    7716,
    7717,    7718,    7719,    7720,    7721,    7722,    7723,    7724,    7725,    7726,
    7727,    7728,    7729,    7730,    7731,    7732,    7733,    7734,    7735,    7736,
    7737,    7738,    7739,    7740,    7741,    7742,    7743,    7744,    7745,    7746,
    7747,    7748,    7749,    7750,    7751,    7752,    7753,    7754,    7755,    7756,
    7757,    7758,    7759,    7760,    7761,    7762,    7763,    7764,    7765,    7766,
    7767,    7768,    7769,    7770,    7771,    7772,    7773,    7774,    7775,    7776,
    7777,    7778,    7779,    7780,    7781,    7782,    7783,    7784,    7785,    7786,
    7787,    7788,    7789,    7790,    7791,    7792,    7793,    7794,    7795,    7796,
** ... 24 like lines cut
*ELSET, ELSET=SS2_S4
    8764,    8773,    8782,    8791,    8800,    8809,    8818,    8827,    8836,    8845,
    8854,    8863,    8872,    8881,    8890,    8899,    8908,    8917,    8926,    8935,
    8944,    8953,    8962,    8971,    8980,    8989,    8998,    9007,    9016,    9025,
    9034,    9043,    9052,    9061,    9070,    9079,    9088,    9097,    9106,    9115,
    9124,    9133,    9142,    9151,    9160,    9169,    9178,    9187,    9196,    9205,
    9214,    9223,    9232,    9241,    9250,    9259,    9268,    9277,    9286,    9295,
    9304,    9313,    9322,    9331,    9340,    9349,    9358,    9367,    9376,    9385,
    9394,    9403,    9412,    9421,    9430,    9439,    9448,    9457,    9466,    9475,
    9484
*ELSET, ELSET=SS2_S5
    8181,    8182,    8183,    8190,    8191,    8192,    8365,    8366,    8367,    8371,
    8372,    8373,    8643,    8644,    8645
*SURFACE, NAME=SS2
SS2_S2, S2
SS2_S4, S4
SS2_S5, S5
*ELSET, ELSET=SS3_S5
     381,     382,     383,     384,     385,     386,     387,     388,     389,     390,
     391,     392,     393,     394,     395,     396,     397,     398,     399,     400,
     781,     782,     783,     784,     785,     786,     787,     788,     789,     790,
     791,     792,     793,     794,     795,     796,     797,     798,     799,     800,
    1181,    1182,    1183,    1184,    1185,    1186,    1187,    1188,    1189,    1190,
    1191,    1192,    1193,    1194,    1195,    1196,    1197,    1198,    1199,    1200,
    1581,    1582,    1583,    1584,    1585,    1586,    1587,    1588,    1589,    1590,
    1591,    1592,    1593,    1594,    1595,    1596,    1597,    1598,    1599,    1600,
    1981,    1982,    1983,    1984,    1985,    1986,    1987,    1988,    1989,    1990,
    1991,    1992,    1993,    1994,    1995,    1996,    1997,    1998,    1999,    2000,
    2381,    2382,    2383,    2384,    2385,    2386,    2387,    2388,    2389,    2390,
    2391,    2392,    2393,    2394,    2395,    2396,    2397,    2398,    2399,    2400,
    2781,    2782,    2783,    2784,    2785,    2786,    2787,    2788,    2789,    2790,
    2791,    2792,    2793,    2794,    2795,    2796,    2797,    2798,    2799,    2800,
    3181,    3182,    3183,    3184,    3185,    3186,    3187,    3188,    3189,    3190,
    3191,    3192,    3193,    3194,    3195,    3196,    3197,    3198,    3199,    3200,
    3581,    3582,    3583,    3584,    3585,    3586,    3587,    3588,    3589,    3590,
    3591,    3592,    3593,    3594,    3595,    3596,    3597,    3598,    3599,    3600,
    3981,    3982,    3983,    3984,    3985,    3986,    3987,    3988,    3989,    3990,
    3991,    3992,    3993,    3994,    3995,    3996,    3997,    3998,    3999,    4000,
** ... 20 like lines cut
*SURFACE, NAME=SS3
SS3_S5, S5
*ELSET, ELSET=SS4_S2
    8310,    8313,    8316,    8331,    8334,    8337,    8340,    8343,    8373,    8376,
    8379,    8382,    8385,    8386,    8492
*ELSET, ELSET=SS4_S3
       1,       2,       3,       4,       5,       6,       7,       8,       9,      10,
      11,      12,      13,      14,      15,      16,      17,      18,      19,      20,
     401,     402,     403,     404,     405,     406,     407,     408,     409,     410,
     411,     412,     413,     414,     415,     416,     417,     418,     419,     420,
     801,     802,     803,     804,     805,     806,     807,     808,     809,     810,
     811,     812,     813,     814,     815,     816,     817,     818,     819,     820,
    1201,    1202,    1203,    1204,    1205,    1206,    1207,    1208,    1209,    1210,
    1211,    1212,    1213,    1214,    1215,    1216,    1217,    1218,    1219,    1220,
    1601,    1602,    1603,    1604,    1605,    1606,    1607,    1608,    1609,    1610,
    1611,    1612,    1613,    1614,    1615,    1616,    1617,    1618,    1619,    1620,
    2001,    2002,    2003,    2004,    2005,    2006,    2007,    2008,    2009,    2010,
    2011,    2012,    2013,    2014,    2015,    2016,    2017,    2018,    2019,    2020,
    2401,    2402,    2403,    2404,    2405,    2406,    2407,    2408,    2409,    2410,
    2411,    2412,    2413,    2414,    2415,    2416,    2417,    2418,    2419,    2420,
    2801,    2802,    2803,    2804,    2805,    2806,    2807,    2808,    2809,    2810,
    2811,    2812,    2813,    2814,    2815,    2816,    2817,    2818,    2819,    2820,
    3201,    3202,    3203,    3204,    3205,    3206,    3207,    3208,    3209,    3210,
    3211,    3212,    3213,    3214,    3215,    3216,    3217,    3218,    3219,    3220,
    3601,    3602,    3603,    3604,    3605,    3606,    3607,    3608,    3609,    3610,
    3611,    3612,    3613,    3614,    3615,    3616,    3617,    3618,    3619,    3620,
** ... 21 like lines cut
*ELSET, ELSET=SS4_S5
    8104,    8145,    8214,    8227,    8390,    8394,    8398,    8404,    8448,    8452,
    8458,    8462,    8466,    8468,    8496,    8500,    8547,    8548,    8549,    8550,
    8551,    8552,    8553,    8625,    8626,    8627,    8680,    8681,    8682,    8683,
    8828,    8829,    8830,    8831,    8832,    8833,    8834,    8835,    8836,    8909,
    8910,    8911,    8912,    8913,    8914,    8915,    8916,    8917,    8990,    8991,
    8992,    8993,    8994,    8995,    8996,    8997,    8998,    9071,    9072,    9073,
    9074,    9075,    9076,    9077,    9078,    9079,    9152,    9153,    9154,    9155,
    9156,    9157,    9158,    9159,    9160,    9233,    9234,    9235,    9236,    9237,
    9238,    9239,    9240,    9241,    9314,    9315,    9316,    9317,    9318,    9319,
    9320,    9321,    9322,    9395,    9396,    9397,    9398,    9399,    9400,    9401,
    9402,    9403,    9476,    9477,    9478,    9479,    9480,    9481,    9482,    9483,
    9484
*SURFACE, NAME=SS4
SS4_S2, S2
SS4_S3, S3
SS4_S5, S5
**
********************************** P R O P E R T I E S ************************
*SOLID SECTION, ELSET=EB1, MATERIAL=Default-Steel
**
*END PART
**
**
**
********************************** E N D   P A R T S **********************************
**
**
********************************** A S S E M B L Y ************************************
**
*ASSEMBLY, NAME=ASSEMBLY1
**
*INSTANCE, NAME=Part-Default_1, PART=Part-Default
*END INSTANCE
**
*END ASSEMBLY
**
**
**
*MATERIAL, NAME = Default-Steel
*ELASTIC, TYPE=ISOTROPIC
2.068000e+05, 2.900000e-01
*DENSITY
7.000000e-06
*CONDUCTIVITY,TYPE=ISO
4.500000e-02
*SPECIFIC HEAT
5.000000e+02
**
**
************************************** H I S T O R Y *************************************
**
*PREPRINT
**
**************************************** S T E P 1 ***************************************
*STEP,INC=100,NAME=Default Set
**
*STATIC
1, 1, 1e-05, 1
**
**
**
**
*END STEP
