*HEADING
cubit(h/NeuralNetworks/SynthData/Mesher_SynthData/TestMesh3.inp): 02/01/2022: 12
version: 2020.2
**
********************************** P A R T S **********************************
*PART, NAME=Part-Default
**
********************************** N O D E S **********************************
*NODE, NSET=ALLNODES
       1,    1.000000e+00,   -2.000000e+00,    1.000000e+00
       2,    1.000000e+00,   -1.000000e+00,    1.000000e+00
       3,    1.000000e+00,   -1.666667e+00,    1.000000e+00
       4,    1.000000e+00,   -1.333333e+00,    1.000000e+00
       5,    0.000000e+00,   -1.000000e+00,    1.000000e+00
       6,    6.666667e-01,   -1.000000e+00,    1.000000e+00
       7,    3.333333e-01,   -1.000000e+00,    1.000000e+00
       8,    0.000000e+00,   -2.000000e+00,    1.000000e+00
       9,    0.000000e+00,   -1.333333e+00,    1.000000e+00
      10,    0.000000e+00,   -1.666667e+00,    1.000000e+00
      11,    3.333333e-01,   -2.000000e+00,    1.000000e+00
      12,    6.666667e-01,   -2.000000e+00,    1.000000e+00
      13,    6.666667e-01,   -1.666667e+00,    1.000000e+00
      14,    6.666667e-01,   -1.333333e+00,    1.000000e+00
      15,    3.333333e-01,   -1.666667e+00,    1.000000e+00
      16,    3.333333e-01,   -1.333333e+00,    1.000000e+00
      17,    1.000000e+00,   -1.000000e+00,    0.000000e+00
      18,    1.000000e+00,   -2.000000e+00,    0.000000e+00
      19,    1.000000e+00,   -1.333333e+00,    0.000000e+00
      20,    1.000000e+00,   -1.666667e+00,    0.000000e+00
** ... 5339 like lines cut
**
********************************** E L E M E N T S ****************************
*ELEMENT, TYPE=C3D8R, ELSET=EB1
       1,    3900,    3902,    3958,    3913,    3672,    3701,    3746,    3674
       2,    3902,    3903,    3975,    3958,    3701,    3700,    3763,    3746
       3,    3903,    3904,    3992,    3975,    3700,    3699,    3780,    3763
       4,    3904,    3905,    4009,    3992,    3699,    3698,    3797,    3780
       5,    3905,    3906,    4026,    4009,    3698,    3697,    3814,    3797
       6,    3906,    3907,    4043,    4026,    3697,    3696,    3831,    3814
       7,    3907,    3908,    4060,    4043,    3696,    3695,    3848,    3831
       8,    3908,    3909,    4077,    4060,    3695,    3694,    3865,    3848
       9,    3909,    3910,    4094,    4077,    3694,    3693,    3882,    3865
      10,    3910,    3911,    4111,    4094,    3693,    3692,    3899,    3882
      11,    3911,    3901,    3941,    4111,    3692,    3691,    3719,    3899
      12,    3913,    3958,    3959,    3914,    3674,    3746,    3745,    3675
      13,    3958,    3975,    3976,    3959,    3746,    3763,    3762,    3745
      14,    3975,    3992,    3993,    3976,    3763,    3780,    3779,    3762
      15,    3992,    4009,    4010,    3993,    3780,    3797,    3796,    3779
      16,    4009,    4026,    4027,    4010,    3797,    3814,    3813,    3796
      17,    4026,    4043,    4044,    4027,    3814,    3831,    3830,    3813
      18,    4043,    4060,    4061,    4044,    3831,    3848,    3847,    3830
      19,    4060,    4077,    4078,    4061,    3848,    3865,    3864,    3847
      20,    4077,    4094,    4095,    4078,    3865,    3882,    3881,    3864
** ... 4434 like lines cut
**
********************************** P R O P E R T I E S ************************
*SOLID SECTION, ELSET=EB1, MATERIAL=Default-Steel
**
*END PART
**
**
**
********************************** E N D   P A R T S **********************************
**
**
********************************** A S S E M B L Y ************************************
**
*ASSEMBLY, NAME=ASSEMBLY1
**
*INSTANCE, NAME=Part-Default_1, PART=Part-Default
*END INSTANCE
**
*END ASSEMBLY
**
**
**
*MATERIAL, NAME = Default-Steel
*ELASTIC, TYPE=ISOTROPIC
2.068000e+05, 2.900000e-01
*DENSITY
7.000000e-06
*CONDUCTIVITY,TYPE=ISO
4.500000e-02
*SPECIFIC HEAT
5.000000e+02
**
**
************************************** H I S T O R Y *************************************
**
*PREPRINT
**
**************************************** S T E P 1 ***************************************
*STEP,INC=100,NAME=Default Set
**
*STATIC
1, 1, 1e-05, 1
**
**
**
**
*END STEP
