*HEADING
cubit(ch/NeuralNetworks/SynthData/Mesher_SynthData/TestMesh.inp): 04/06/2022: 19
version: 2020.2
**
********************************** P A R T S **********************************
*PART, NAME=Part-Default
**
********************************** N O D E S **********************************
*NODE, NSET=ALLNODES
       1,    0.000000e+00,   -1.000000e+00,    0.000000e+00
       2,    0.000000e+00,   -1.888889e+00,    0.000000e+00
       3,    0.000000e+00,   -1.777778e+00,    0.000000e+00
       4,    0.000000e+00,   -1.666667e+00,    0.000000e+00
       5,    0.000000e+00,   -1.555556e+00,    0.000000e+00
       6,    0.000000e+00,   -1.444444e+00,    0.000000e+00
       7,    0.000000e+00,   -1.333333e+00,    0.000000e+00
       8,    0.000000e+00,   -1.222222e+00,    0.000000e+00
       9,    0.000000e+00,   -1.111111e+00,    0.000000e+00
      10,    1.111111e-01,   -1.000000e+00,    0.000000e+00
      11,    2.222222e-01,   -1.000000e+00,    0.000000e+00
      12,    3.333333e-01,   -1.000000e+00,    0.000000e+00
      13,    4.444444e-01,   -1.000000e+00,    0.000000e+00
      14,    5.555556e-01,   -1.000000e+00,    0.000000e+00
      15,    6.666667e-01,   -1.000000e+00,    0.000000e+00
      16,    7.777778e-01,   -1.000000e+00,    0.000000e+00
      17,    8.888889e-01,   -1.000000e+00,    0.000000e+00
      18,    8.888889e-01,   -1.111111e+00,    0.000000e+00
      19,    8.888889e-01,   -1.222222e+00,    0.000000e+00
      20,    8.888889e-01,   -1.333333e+00,    0.000000e+00
** ... 3007 like lines cut
**
********************************** E L E M E N T S ****************************
*ELEMENT, TYPE=C3D8R, ELSET=EB1
       1,     756,     873,     963,     757,     766,    1186,    1412,     781
       2,     873,     872,     954,     963,    1186,    1194,    1413,    1412
       3,     872,     871,     945,     954,    1194,    1202,    1414,    1413
       4,     871,     870,     936,     945,    1202,    1210,    1415,    1414
       5,     870,     869,     927,     936,    1210,    1218,    1416,    1415
       6,     869,     868,     918,     927,    1218,    1226,    1417,    1416
       7,     868,     867,     909,     918,    1226,    1234,    1418,    1417
       8,     867,     866,     900,     909,    1234,    1242,    1419,    1418
       9,     866,     865,     891,     900,    1242,    1250,    1420,    1419
      10,     865,     855,     864,     891,    1250,    1162,    1323,    1420
      11,     757,     963,     962,     758,     781,    1412,    1421,     846
      12,     963,     954,     953,     962,    1412,    1413,    1422,    1421
      13,     954,     945,     944,     953,    1413,    1414,    1423,    1422
      14,     945,     936,     935,     944,    1414,    1415,    1424,    1423
      15,     936,     927,     926,     935,    1415,    1416,    1425,    1424
      16,     927,     918,     917,     926,    1416,    1417,    1426,    1425
      17,     918,     909,     908,     917,    1417,    1418,    1427,    1426
      18,     909,     900,     899,     908,    1418,    1419,    1428,    1427
      19,     900,     891,     890,     899,    1419,    1420,    1429,    1428
      20,     891,     864,     863,     890,    1420,    1323,    1314,    1429
** ... 2464 like lines cut
**
********************************** S I D E S E T S **********************************
*ELSET, ELSET=SS1_S1
    1072,    1217,    1219,    1223,    1230,    1295,    1439,    1440,    1441,    1442,
    1460,    1461,    1462,    1463,    1756,    1757,    1758,    1759,    1760,    1761,
    1762,    1763,    1764,    1765,    1766,    1767,    1768,    1769,    1770,    1771,
    1772,    1773,    1774,    1775,    1776,    1777,    1778,    1779,    1780,    1781,
    1782,    1783,    1784,    1785,    1786,    1787,    1788,    1789,    1790,    1791,
    1792,    1793,    1794,    1795,    1796,    1797,    1798,    1799,    1800,    1801,
    1802,    1803,    1804,    1805,    1806,    1807,    1808,    1809,    1810,    1811,
    1812,    1813,    1814,    1815,    1816,    1817,    1818,    1819,    1820,    1821,
    1822,    1823,    1824,    1825,    1826,    1827,    1828,    1829,    1830,    1831,
    1832,    1833,    1834,    1835,    1836
*ELSET, ELSET=SS1_S2
    1159,    1162,    1189,    1192,    1195,    1198,    1201,    1204,    1207,    1210
*ELSET, ELSET=SS1_S3
    1117,    1133,    1235,    1239,    1243,    1245,    1287,    1291,    1578,    1579,
    1580,    1581
*ELSET, ELSET=SS1_S5
    1338,    1339,    1340,    1353,    1354,    1355,    1523,    1524,    1525
*ELSET, ELSET=SS1_S6
       1,      11,      21,      31,      41,      51,      61,      71,      81,      91,
     101,     111,     121,     131,     141,     151,     161,     171,     181,     191,
     201,     211,     221,     231,     241,     251,     261,     271,     281,     291,
     301,     311,     321,     331,     341,     351,     361,     371,     381,     391,
     401,     411,     421,     431,     441,     451,     461,     471,     481,     491,
     501,     511,     521,     531,     541,     551,     561,     571,     581,     591,
     601,     611,     621,     631,     641,     651,     661,     671,     681,     691,
     701,     711,     721,     731,     741,     751,     761,     771,     781,     791,
     817,     827,     837,     847,     857,     867,     877,     887,     905,     915,
     925,     935,     945,     955,     965,     975,    1001,    1007,    1011,    1017,
    1019,    1023,    1043,    1044,    1045,    1046
*SURFACE, NAME=SS1
SS1_S1, S1
SS1_S2, S2
SS1_S3, S3
SS1_S5, S5
SS1_S6, S6
*ELSET, ELSET=SS2_S2
     897,     898,     899,     900,     901,     902,     903,     904,     905,     906,
     907,     908,     909,     910,     911,     912,     913,     914,     915,     916,
     917,     918,     919,     920,     921,     922,     923,     924,     925,     926,
     927,     928,     929,     930,     931,     932,     933,     934,     935,     936,
     937,     938,     939,     940,     941,     942,     943,     944,     945,     946,
     947,     948,     949,     950,     951,     952,     953,     954,     955,     956,
     957,     958,     959,     960,     961,     962,     963,     964,     965,     966,
     967,     968,     969,     970,     971,     972,     973,     974,     975,     976,
     977,     978,     979,     980,     981,     982,     983,     984,     985,     986,
     987,     988,     989,     990,     991,     992,     996,    1006,    1027,    1031,
    1037,    1041,    1043,    1047,    1053,    1057,    1066,    1085,    1088,    1097,
    1100,    1107,    1111,    1113,    1136,    1143,    1233,    1234,    1235,    1236,
    1254,    1255,    1256,    1257,    1390,    1391,    1392,    1393,    1415,    1416,
    1417,    1418,    1704,    1705,    1706,    1707
*ELSET, ELSET=SS2_S4
    1764,    1773,    1782,    1791,    1800,    1809,    1818,    1827,    1836,    1845,
    1854,    1863,    1872,    1881,    1890,    1899,    1908,    1917,    1926,    1935,
    1944,    1953,    1962,    1971,    1980,    1989,    1998,    2007,    2016,    2025,
    2034,    2043,    2052,    2061,    2070,    2079,    2088,    2097,    2106,    2115,
    2124,    2133,    2142,    2151,    2160,    2169,    2178,    2187,    2196,    2205,
    2214,    2223,    2232,    2241,    2250,    2259,    2268,    2277,    2286,    2295,
    2304,    2313,    2322,    2331,    2340,    2349,    2358,    2367,    2376,    2385,
    2394,    2403,    2412,    2421,    2430,    2439,    2448,    2457,    2466,    2475,
    2484
*ELSET, ELSET=SS2_S5
    1181,    1182,    1183,    1190,    1191,    1192,    1365,    1366,    1367,    1371,
    1372,    1373,    1643,    1644,    1645
*SURFACE, NAME=SS2
SS2_S2, S2
SS2_S4, S4
SS2_S5, S5
*ELSET, ELSET=SS3_S5
      91,      92,      93,      94,      95,      96,      97,      98,      99,     100,
     191,     192,     193,     194,     195,     196,     197,     198,     199,     200,
     291,     292,     293,     294,     295,     296,     297,     298,     299,     300,
     391,     392,     393,     394,     395,     396,     397,     398,     399,     400,
     491,     492,     493,     494,     495,     496,     497,     498,     499,     500,
     591,     592,     593,     594,     595,     596,     597,     598,     599,     600,
     691,     692,     693,     694,     695,     696,     697,     698,     699,     700,
     791,     792,     793,     794,     795,     796,     797,     798,     799,     800,
     887,     888,     889,     890,     891,     892,     893,     894,     895,     896,
     975,     976,     977,     978,     979,     980,     981,     982,     983,     984
*SURFACE, NAME=SS3
SS3_S5, S5
*ELSET, ELSET=SS4_S2
    1310,    1313,    1316,    1331,    1334,    1337,    1340,    1343,    1373,    1376,
    1379,    1382,    1385,    1386,    1492
*ELSET, ELSET=SS4_S3
       1,       2,       3,       4,       5,       6,       7,       8,       9,      10,
     101,     102,     103,     104,     105,     106,     107,     108,     109,     110,
     201,     202,     203,     204,     205,     206,     207,     208,     209,     210,
     301,     302,     303,     304,     305,     306,     307,     308,     309,     310,
     401,     402,     403,     404,     405,     406,     407,     408,     409,     410,
     501,     502,     503,     504,     505,     506,     507,     508,     509,     510,
     601,     602,     603,     604,     605,     606,     607,     608,     609,     610,
     701,     702,     703,     704,     705,     706,     707,     708,     709,     710,
     801,     802,     803,     804,     805,     806,     807,     808,     985,     986,
     987,     988,     989,     990,     991,     992,     997,    1002,    1011,    1012,
    1013,    1014,    1039,    1040,    1041,    1042
*ELSET, ELSET=SS4_S5
    1104,    1145,    1214,    1227,    1390,    1394,    1398,    1404,    1448,    1452,
    1458,    1462,    1466,    1468,    1496,    1500,    1547,    1548,    1549,    1550,
    1551,    1552,    1553,    1625,    1626,    1627,    1680,    1681,    1682,    1683,
    1828,    1829,    1830,    1831,    1832,    1833,    1834,    1835,    1836,    1909,
    1910,    1911,    1912,    1913,    1914,    1915,    1916,    1917,    1990,    1991,
    1992,    1993,    1994,    1995,    1996,    1997,    1998,    2071,    2072,    2073,
    2074,    2075,    2076,    2077,    2078,    2079,    2152,    2153,    2154,    2155,
    2156,    2157,    2158,    2159,    2160,    2233,    2234,    2235,    2236,    2237,
    2238,    2239,    2240,    2241,    2314,    2315,    2316,    2317,    2318,    2319,
    2320,    2321,    2322,    2395,    2396,    2397,    2398,    2399,    2400,    2401,
    2402,    2403,    2476,    2477,    2478,    2479,    2480,    2481,    2482,    2483,
    2484
*SURFACE, NAME=SS4
SS4_S2, S2
SS4_S3, S3
SS4_S5, S5
**
********************************** P R O P E R T I E S ************************
*SOLID SECTION, ELSET=EB1, MATERIAL=Default-Steel
**
*END PART
**
**
**
********************************** E N D   P A R T S **********************************
**
**
********************************** A S S E M B L Y ************************************
**
*ASSEMBLY, NAME=ASSEMBLY1
**
*INSTANCE, NAME=Part-Default_1, PART=Part-Default
*END INSTANCE
**
*END ASSEMBLY
**
**
**
*MATERIAL, NAME = Default-Steel
*ELASTIC, TYPE=ISOTROPIC
2.068000e+05, 2.900000e-01
*DENSITY
7.000000e-06
*CONDUCTIVITY,TYPE=ISO
4.500000e-02
*SPECIFIC HEAT
5.000000e+02
**
**
************************************** H I S T O R Y *************************************
**
*PREPRINT
**
**************************************** S T E P 1 ***************************************
*STEP,INC=100,NAME=Default Set
**
*STATIC
1, 1, 1e-05, 1
**
**
**
**
*END STEP
